Circuit: * D:\Documents\Portfolio\Portfolio\AudioEQ\Test.asc

WARNING: Less than two connections to node VCC.  This node is used by V2.
WARNING: Less than two connections to node VEE.  This node is used by V3.
Direct Newton iteration for .op point succeeded.
Trouble converting D:\Documents\Portfolio\Portfolio\AudioEQ\Test.raw to Fast Access format.

   There's no advantage in converting "D:\Documents\Portfolio\Portfolio\AudioEQ\Test.raw" to Fast Access format.
Date: Thu May 30 07:25:32 2024
Time to convert to fast access format: 0.052 seconds.
Total elapsed time: 82.151 seconds.

tnom = 27
temp = 27
method = modified trap
totiter = 10225979
traniter = 10225974
tranpoints = 5112988
accept = 3948821
rejected = 1164167
matrix size = 104
fillins = 86
solver = Normal
Matrix Compiler1: 6.80 KB object code size  2.8/1.3/[0.5]
Matrix Compiler2: 8.42 KB object code size  1.2/1.7/[0.7]

